*HSPICE SRAM 32*128
*Reza Adinepour 402131055

.INCLUDE "mosistsmc180.lib"

*--declaration---------------------------------------------------------------------------------------------------------------
VDD VDD 0 DC 1.8V
.global VDD
.param lambda=180nm
VGND	GND 	0	0
.global GND

*--circuits:-----------------------------------------------------------------------------------------------------------------
*-- Inverter -----------------------------------------------
* D G S BODY
.SUBCKT	NOT A	A!
	MP A!  A  VDD  VDD  PMOS  L='2*lambda' W='10*lambda'  *-- inverter ==> 2 Times of nmos 
	MN A!  A   0    0   NMOS  L='2*lambda' W='4*lambda'
.ENDS

*-- DECODER ------------------------------------------------

.subckt DECODER in1 in2 in3 in4 in5 in6 in7 in1! in2! in3! in4! in5! in6! in7! out1 out2 out3 out4 out5 out6 out7 out8 out9 out10 out11 out12 out13 out14 out15 out16 out17 out18 out19 out20 out21 out22 out23 out24 out25 out26 out27 out28 out29 out30 out31 out32 out33 out34 out35 out36 out37 out38 out39 out40 out41 out42 out43 out44 out45 out46 out47 out48 out49 out50 out51 out52 out53 out54 out55 out56 out57 out58 out59 out60 out61 out62 out63 out64 out65 out66 out67 out68 out69 out70 out71 out72 out73 out74 out75 out76 out77 out78 out79 out80 out81 out82 out83 out84 out85 out86 out87 out88 out89 out90 out91 out92 out93 out94 out95 out96 out97 out98 out99 out100 out101 out102 out103 out104 out105 out106 out107 out108 out109 out110 out111 out112 out113 out114 out115 out116 out117 out118 out119 out120 out121 out122 out123 out124 out125 out126 out127 out128
				
				
	*--line 1
	MN11 out1 in7 0 0   NMOS  L='2*lambda' W='4*lambda'
	MN12 out1 in6 0 0   NMOS  L='2*lambda' W='4*lambda'
	MN13 out1 in5 0 0   NMOS  L='2*lambda' W='4*lambda'
	MN14 out1 in4 0 0   NMOS  L='2*lambda' W='4*lambda'
	MN15 out1 in3 0 0   NMOS  L='2*lambda' W='4*lambda'
	MN16 out1 in2 0 0   NMOS  L='2*lambda' W='4*lambda'
	MN17 out1 in1 0 0   NMOS  L='2*lambda' W='4*lambda'
	MP1  out1 0   vdd vdd   PMOS  L='2*lambda' W='10*lambda'
	
	*--line 2
	MN21 out2 in7! gnd gnd   NMOS  L='2*lambda' W='4*lambda'
	MN22 out2 in6  gnd gnd   NMOS  L='2*lambda' W='4*lambda'
	MN23 out2 in5  gnd gnd   NMOS  L='2*lambda' W='4*lambda'
	MN24 out2 in4  gnd gnd   NMOS  L='2*lambda' W='4*lambda'
	MN25 out2 in3  gnd gnd   NMOS  L='2*lambda' W='4*lambda'
	MN26 out2 in2  gnd gnd   NMOS  L='2*lambda' W='4*lambda'
	MN27 out2 in1  gnd gnd   NMOS  L='2*lambda' W='4*lambda'
	MP2  out2 0    vdd vdd   PMOS  L='2*lambda' W='10*lambda'
	
	*--line 3
	MN31 out3 in7  gnd gnd   NMOS  L='2*lambda' W='4*lambda'
	MN32 out3 in6! gnd gnd   NMOS  L='2*lambda' W='4*lambda'
	MN33 out3 in5  gnd gnd   NMOS  L='2*lambda' W='4*lambda'
	MN34 out3 in4  gnd gnd   NMOS  L='2*lambda' W='4*lambda'
	MN35 out3 in3  gnd gnd   NMOS  L='2*lambda' W='4*lambda'
	MN36 out3 in2  gnd gnd   NMOS  L='2*lambda' W='4*lambda'
	MN37 out3 in1  gnd gnd   NMOS  L='2*lambda' W='4*lambda'
	MP3  out3 gnd  vdd vdd   PMOS  L='2*lambda' W='10*lambda'
	
	*--line 4
	MN41 out4 in7!  gnd gnd   NMOS  L='2*lambda' W='4*lambda'
	MN42 out4 in6!  gnd gnd   NMOS  L='2*lambda' W='4*lambda'
	MN43 out4 in5   gnd gnd   NMOS  L='2*lambda' W='4*lambda'
	MN44 out4 in4   gnd gnd   NMOS  L='2*lambda' W='4*lambda'
	MN45 out4 in3   gnd gnd   NMOS  L='2*lambda' W='4*lambda'
	MN46 out4 in2   gnd gnd   NMOS  L='2*lambda' W='4*lambda'
	MN47 out4 in1   gnd gnd   NMOS  L='2*lambda' W='4*lambda'
	MP4  out4 gnd   vdd vdd   PMOS  L='2*lambda' W='10*lambda'
	
	*--line 5
	MN51 out5 in7   gnd gnd   NMOS  L='2*lambda' W='4*lambda'
	MN52 out5 in6   gnd gnd   NMOS  L='2*lambda' W='4*lambda'
	MN53 out5 in5!  gnd gnd   NMOS  L='2*lambda' W='4*lambda'
	MN54 out5 in4   gnd gnd   NMOS  L='2*lambda' W='4*lambda'
	MN55 out5 in3   gnd gnd   NMOS  L='2*lambda' W='4*lambda'
	MN56 out5 in2   gnd gnd   NMOS  L='2*lambda' W='4*lambda'
	MN57 out5 in1   gnd gnd   NMOS  L='2*lambda' W='4*lambda'
	MP5  out5 gnd   vdd vdd   PMOS  L='2*lambda' W='10*lambda'
	
	*--line 6
	MN61 out6 in7!  gnd gnd   NMOS  L='2*lambda' W='4*lambda'
	MN62 out6 in6   gnd gnd   NMOS  L='2*lambda' W='4*lambda'
	MN63 out6 in5!  gnd gnd   NMOS  L='2*lambda' W='4*lambda'
	MN64 out6 in4   gnd gnd   NMOS  L='2*lambda' W='4*lambda'
	MN65 out6 in3   gnd gnd   NMOS  L='2*lambda' W='4*lambda'
	MN66 out6 in2   gnd gnd   NMOS  L='2*lambda' W='4*lambda'
	MN67 out6 in1   gnd gnd   NMOS  L='2*lambda' W='4*lambda'
	MP6  out6 gnd   vdd vdd   PMOS  L='2*lambda' W='10*lambda'
	
	*--line 7
	MN71 out7 in7   gnd gnd   NMOS  L='2*lambda' W='4*lambda'
	MN72 out7 in6!  gnd gnd   NMOS  L='2*lambda' W='4*lambda'
	MN73 out7 in5!  gnd gnd   NMOS  L='2*lambda' W='4*lambda'
	MN74 out7 in4   gnd gnd   NMOS  L='2*lambda' W='4*lambda'
	MN75 out7 in3   gnd gnd   NMOS  L='2*lambda' W='4*lambda'
	MN76 out7 in2   gnd gnd   NMOS  L='2*lambda' W='4*lambda'
	MN77 out7 in1   gnd gnd   NMOS  L='2*lambda' W='4*lambda'
	MP7  out7 gnd   vdd vdd   PMOS  L='2*lambda' W='10*lambda'
	
	*--line 8
	MN81 out8 in7!  gnd gnd   NMOS  L='2*lambda' W='4*lambda'
	MN82 out8 in6!  gnd gnd   NMOS  L='2*lambda' W='4*lambda'
	MN83 out8 in5!  gnd gnd   NMOS  L='2*lambda' W='4*lambda'
	MN84 out8 in4   gnd gnd   NMOS  L='2*lambda' W='4*lambda'
	MN85 out8 in3   gnd gnd   NMOS  L='2*lambda' W='4*lambda'
	MN86 out8 in2   gnd gnd   NMOS  L='2*lambda' W='4*lambda'
	MN87 out8 in1   gnd gnd   NMOS  L='2*lambda' W='4*lambda'
	MP8  out8 gnd   vdd vdd   PMOS  L='2*lambda' W='10*lambda'
	
	*--line 9
	MN91 out9 in7   gnd gnd   NMOS  L='2*lambda' W='4*lambda'
	MN92 out9 in6   gnd gnd   NMOS  L='2*lambda' W='4*lambda'
	MN93 out9 in5   gnd gnd   NMOS  L='2*lambda' W='4*lambda'
	MN94 out9 in4!  gnd gnd   NMOS  L='2*lambda' W='4*lambda'
	MN95 out9 in3   gnd gnd   NMOS  L='2*lambda' W='4*lambda'
	MN96 out9 in2   gnd gnd   NMOS  L='2*lambda' W='4*lambda'
	MN97 out9 in1   gnd gnd   NMOS  L='2*lambda' W='4*lambda'
	MP9  out9 gnd   vdd vdd   PMOS  L='2*lambda' W='10*lambda'
	
	*--line 10
	MN101 out10 in7!  gnd gnd   NMOS  L='2*lambda' W='4*lambda'
	MN102 out10 in6   gnd gnd   NMOS  L='2*lambda' W='4*lambda'
	MN103 out10 in5   gnd gnd   NMOS  L='2*lambda' W='4*lambda'
	MN104 out10 in4!  gnd gnd   NMOS  L='2*lambda' W='4*lambda'
	MN105 out10 in3   gnd gnd   NMOS  L='2*lambda' W='4*lambda'
	MN106 out10 in2   gnd gnd   NMOS  L='2*lambda' W='4*lambda'
	MN107 out10 in1   gnd gnd   NMOS  L='2*lambda' W='4*lambda'
	MP10  out10 gnd   vdd vdd   PMOS  L='2*lambda' W='10*lambda'
	
	*--line 11
	MN111 out11 in7   gnd gnd   NMOS  L='2*lambda' W='4*lambda'
	MN112 out11 in6!  gnd gnd   NMOS  L='2*lambda' W='4*lambda'
	MN113 out11 in5   gnd gnd   NMOS  L='2*lambda' W='4*lambda'
	MN114 out11 in4!  gnd gnd   NMOS  L='2*lambda' W='4*lambda'
	MN115 out11 in3   gnd gnd   NMOS  L='2*lambda' W='4*lambda'
	MN116 out11 in2   gnd gnd   NMOS  L='2*lambda' W='4*lambda'
	MN117 out11 in1   gnd gnd   NMOS  L='2*lambda' W='4*lambda'
	MP11  out11 gnd   vdd vdd   PMOS  L='2*lambda' W='10*lambda'
	
	*--line 12
	MN121 out12 in7!  gnd gnd   NMOS  L='2*lambda' W='4*lambda'
	MN122 out12 in6!  gnd gnd   NMOS  L='2*lambda' W='4*lambda'
	MN123 out12 in5   gnd gnd   NMOS  L='2*lambda' W='4*lambda'
	MN124 out12 in4!  gnd gnd   NMOS  L='2*lambda' W='4*lambda'
	MN125 out12 in3   gnd gnd   NMOS  L='2*lambda' W='4*lambda'
	MN126 out12 in2   gnd gnd   NMOS  L='2*lambda' W='4*lambda'
	MN127 out12 in1   gnd gnd   NMOS  L='2*lambda' W='4*lambda'
	MP12  out12 gnd   vdd vdd   PMOS  L='2*lambda' W='10*lambda'
	
	*--line 13
	MN131 out13 in7   gnd gnd   NMOS  L='2*lambda' W='4*lambda'
	MN132 out13 in6   gnd gnd   NMOS  L='2*lambda' W='4*lambda'
	MN133 out13 in5!  gnd gnd   NMOS  L='2*lambda' W='4*lambda'
	MN134 out13 in4!  gnd gnd   NMOS  L='2*lambda' W='4*lambda'
	MN135 out13 in3   gnd gnd   NMOS  L='2*lambda' W='4*lambda'
	MN136 out13 in2   gnd gnd   NMOS  L='2*lambda' W='4*lambda'
	MN137 out13 in1   gnd gnd   NMOS  L='2*lambda' W='4*lambda'
	MP13  out13 gnd   vdd vdd   PMOS  L='2*lambda' W='10*lambda'
	
	*--line 14
	MN141 out14 in7!  gnd gnd   NMOS  L='2*lambda' W='4*lambda'
	MN142 out14 in6   gnd gnd   NMOS  L='2*lambda' W='4*lambda'
	MN143 out14 in5!  gnd gnd   NMOS  L='2*lambda' W='4*lambda'
	MN144 out14 in4!  gnd gnd   NMOS  L='2*lambda' W='4*lambda'
	MN145 out14 in3   gnd gnd   NMOS  L='2*lambda' W='4*lambda'
	MN146 out14 in2   gnd gnd   NMOS  L='2*lambda' W='4*lambda'
	MN147 out14 in1   gnd gnd   NMOS  L='2*lambda' W='4*lambda'
	MP14  out14 gnd   vdd vdd   PMOS  L='2*lambda' W='10*lambda'
	
	*--line 15
	MN151 out15 in7   gnd gnd   NMOS  L='2*lambda' W='4*lambda'
	MN152 out15 in6!  gnd gnd   NMOS  L='2*lambda' W='4*lambda'
	MN153 out15 in5!  gnd gnd   NMOS  L='2*lambda' W='4*lambda'
	MN154 out15 in4!  gnd gnd   NMOS  L='2*lambda' W='4*lambda'
	MN155 out15 in3   gnd gnd   NMOS  L='2*lambda' W='4*lambda'
	MN156 out15 in2   gnd gnd   NMOS  L='2*lambda' W='4*lambda'
	MN157 out15 in1   gnd gnd   NMOS  L='2*lambda' W='4*lambda'
	MP15  out15 gnd   vdd vdd   PMOS  L='2*lambda' W='10*lambda'
	
	*--line 16
	MN161 out16 in7!  gnd gnd   NMOS  L='2*lambda' W='4*lambda'
	MN162 out16 in6!  gnd gnd   NMOS  L='2*lambda' W='4*lambda'
	MN163 out16 in5!  gnd gnd   NMOS  L='2*lambda' W='4*lambda'
	MN164 out16 in4!  gnd gnd   NMOS  L='2*lambda' W='4*lambda'
	MN165 out16 in3   gnd gnd   NMOS  L='2*lambda' W='4*lambda'
	MN166 out16 in2   gnd gnd   NMOS  L='2*lambda' W='4*lambda'
	MN167 out16 in1   gnd gnd   NMOS  L='2*lambda' W='4*lambda'
	MP16  out16 gnd   vdd vdd   PMOS  L='2*lambda' W='10*lambda'
	
	*--line 17
	MN171 out17 in7   gnd gnd   NMOS  L='2*lambda' W='4*lambda'
	MN172 out17 in6   gnd gnd   NMOS  L='2*lambda' W='4*lambda'
	MN173 out17 in5   gnd gnd   NMOS  L='2*lambda' W='4*lambda'
	MN174 out17 in4   gnd gnd   NMOS  L='2*lambda' W='4*lambda'
	MN175 out17 in3!  gnd gnd   NMOS  L='2*lambda' W='4*lambda'
	MN176 out17 in2   gnd gnd   NMOS  L='2*lambda' W='4*lambda'
	MN177 out17 in1   gnd gnd   NMOS  L='2*lambda' W='4*lambda'
	MP17  out17 gnd   vdd vdd   PMOS  L='2*lambda' W='10*lambda'
	
	*--line 18
	MN181 out18 in7!  gnd gnd   NMOS  L='2*lambda' W='4*lambda'
	MN182 out18 in6   gnd gnd   NMOS  L='2*lambda' W='4*lambda'
	MN183 out18 in5   gnd gnd   NMOS  L='2*lambda' W='4*lambda'
	MN184 out18 in4   gnd gnd   NMOS  L='2*lambda' W='4*lambda'
	MN185 out18 in3!  gnd gnd   NMOS  L='2*lambda' W='4*lambda'
	MN186 out18 in2   gnd gnd   NMOS  L='2*lambda' W='4*lambda'
	MN187 out18 in1   gnd gnd   NMOS  L='2*lambda' W='4*lambda'
	MP18  out18 gnd   vdd vdd   PMOS  L='2*lambda' W='10*lambda'
	
	*--line 19
	MN191 out19 in7   gnd gnd   NMOS  L='2*lambda' W='4*lambda'
	MN192 out19 in6!  gnd gnd   NMOS  L='2*lambda' W='4*lambda'
	MN193 out19 in5   gnd gnd   NMOS  L='2*lambda' W='4*lambda'
	MN194 out19 in4   gnd gnd   NMOS  L='2*lambda' W='4*lambda'
	MN195 out19 in3!  gnd gnd   NMOS  L='2*lambda' W='4*lambda'
	MN196 out19 in2   gnd gnd   NMOS  L='2*lambda' W='4*lambda'
	MN197 out19 in1   gnd gnd   NMOS  L='2*lambda' W='4*lambda'
	MP19  out19 gnd   vdd vdd   PMOS  L='2*lambda' W='10*lambda'
	
	*--line 20
	MN201 out20 in7!  gnd gnd   NMOS  L='2*lambda' W='4*lambda'
	MN202 out20 in6!  gnd gnd   NMOS  L='2*lambda' W='4*lambda'
	MN203 out20 in5   gnd gnd   NMOS  L='2*lambda' W='4*lambda'
	MN204 out20 in4   gnd gnd   NMOS  L='2*lambda' W='4*lambda'
	MN205 out20 in3!  gnd gnd   NMOS  L='2*lambda' W='4*lambda'
	MN206 out20 in2   gnd gnd   NMOS  L='2*lambda' W='4*lambda'
	MN207 out20 in1   gnd gnd   NMOS  L='2*lambda' W='4*lambda'
	MP20  out20 gnd   vdd vdd   PMOS  L='2*lambda' W='10*lambda'
	
	*--line 21
	MN211 out21 in7   gnd gnd   NMOS  L='2*lambda' W='4*lambda'
	MN212 out21 in6   gnd gnd   NMOS  L='2*lambda' W='4*lambda'
	MN213 out21 in5!  gnd gnd   NMOS  L='2*lambda' W='4*lambda'
	MN214 out21 in4   gnd gnd   NMOS  L='2*lambda' W='4*lambda'
	MN215 out21 in3!  gnd gnd   NMOS  L='2*lambda' W='4*lambda'
	MN216 out21 in2   gnd gnd   NMOS  L='2*lambda' W='4*lambda'
	MN217 out21 in1   gnd gnd   NMOS  L='2*lambda' W='4*lambda'
	MP21  out21 gnd   vdd vdd   PMOS  L='2*lambda' W='10*lambda'
	
	*--line 22
	MN221 out22 in7!  gnd gnd   NMOS  L='2*lambda' W='4*lambda'
	MN222 out22 in6   gnd gnd   NMOS  L='2*lambda' W='4*lambda'
	MN223 out22 in5!  gnd gnd   NMOS  L='2*lambda' W='4*lambda'
	MN224 out22 in4   gnd gnd   NMOS  L='2*lambda' W='4*lambda'
	MN225 out22 in3!  gnd gnd   NMOS  L='2*lambda' W='4*lambda'
	MN226 out22 in2   gnd gnd   NMOS  L='2*lambda' W='4*lambda'
	MN227 out22 in1   gnd gnd   NMOS  L='2*lambda' W='4*lambda'
	MP22  out22 gnd   vdd vdd   PMOS  L='2*lambda' W='10*lambda'
	
	*--line 23
	MN231 out23 in7   gnd gnd   NMOS  L='2*lambda' W='4*lambda'
	MN232 out23 in6!  gnd gnd   NMOS  L='2*lambda' W='4*lambda'
	MN233 out23 in5!  gnd gnd   NMOS  L='2*lambda' W='4*lambda'
	MN234 out23 in4   gnd gnd   NMOS  L='2*lambda' W='4*lambda'
	MN235 out23 in3!  gnd gnd   NMOS  L='2*lambda' W='4*lambda'
	MN236 out23 in2   gnd gnd   NMOS  L='2*lambda' W='4*lambda'
	MN237 out23 in1   gnd gnd   NMOS  L='2*lambda' W='4*lambda'
	MP23  out23 gnd   vdd vdd   PMOS  L='2*lambda' W='10*lambda'
	
	*--line 24
	MN241 out24 in7!  gnd gnd   NMOS  L='2*lambda' W='4*lambda'
	MN242 out24 in6!  gnd gnd   NMOS  L='2*lambda' W='4*lambda'
	MN243 out24 in5!  gnd gnd   NMOS  L='2*lambda' W='4*lambda'
	MN244 out24 in4   gnd gnd   NMOS  L='2*lambda' W='4*lambda'
	MN245 out24 in3!  gnd gnd   NMOS  L='2*lambda' W='4*lambda'
	MN246 out24 in2   gnd gnd   NMOS  L='2*lambda' W='4*lambda'
	MN247 out24 in1   gnd gnd   NMOS  L='2*lambda' W='4*lambda'
	MP24  out24 gnd   vdd vdd   PMOS  L='2*lambda' W='10*lambda'
	
	*--line 25
	MN251 out25 in7   gnd gnd   NMOS  L='2*lambda' W='4*lambda'
	MN252 out25 in6   gnd gnd   NMOS  L='2*lambda' W='4*lambda'
	MN253 out25 in5   gnd gnd   NMOS  L='2*lambda' W='4*lambda'
	MN254 out25 in4!  gnd gnd   NMOS  L='2*lambda' W='4*lambda'
	MN255 out25 in3!  gnd gnd   NMOS  L='2*lambda' W='4*lambda'
	MN256 out25 in2   gnd gnd   NMOS  L='2*lambda' W='4*lambda'
	MN257 out25 in1   gnd gnd   NMOS  L='2*lambda' W='4*lambda'
	MP25  out25 gnd   vdd vdd   PMOS  L='2*lambda' W='10*lambda'
	
	*--line 26
	MN261 out26 in7!  gnd gnd   NMOS  L='2*lambda' W='4*lambda'
	MN262 out26 in6   gnd gnd   NMOS  L='2*lambda' W='4*lambda'
	MN263 out26 in5   gnd gnd   NMOS  L='2*lambda' W='4*lambda'
	MN264 out26 in4!  gnd gnd   NMOS  L='2*lambda' W='4*lambda'
	MN265 out26 in3!  gnd gnd   NMOS  L='2*lambda' W='4*lambda'
	MN266 out26 in2   gnd gnd   NMOS  L='2*lambda' W='4*lambda'
	MN267 out26 in1   gnd gnd   NMOS  L='2*lambda' W='4*lambda'
	MP26  out26 gnd   vdd vdd   PMOS  L='2*lambda' W='10*lambda'
	
	*--line 27
	MN271 out27 in7   gnd gnd   NMOS  L='2*lambda' W='4*lambda'
	MN272 out27 in6!  gnd gnd   NMOS  L='2*lambda' W='4*lambda'
	MN273 out27 in5   gnd gnd   NMOS  L='2*lambda' W='4*lambda'
	MN274 out27 in4!  gnd gnd   NMOS  L='2*lambda' W='4*lambda'
	MN275 out27 in3!  gnd gnd   NMOS  L='2*lambda' W='4*lambda'
	MN276 out27 in2   gnd gnd   NMOS  L='2*lambda' W='4*lambda'
	MN277 out27 in1   gnd gnd   NMOS  L='2*lambda' W='4*lambda'
	MP27  out27 gnd   vdd vdd   PMOS  L='2*lambda' W='10*lambda'
	
	*--line 28
	MN281 out28 in7!  gnd gnd   NMOS  L='2*lambda' W='4*lambda'
	MN282 out28 in6!  gnd gnd   NMOS  L='2*lambda' W='4*lambda'
	MN283 out28 in5   gnd gnd   NMOS  L='2*lambda' W='4*lambda'
	MN284 out28 in4!  gnd gnd   NMOS  L='2*lambda' W='4*lambda'
	MN285 out28 in3!  gnd gnd   NMOS  L='2*lambda' W='4*lambda'
	MN286 out28 in2   gnd gnd   NMOS  L='2*lambda' W='4*lambda'
	MN287 out28 in1   gnd gnd   NMOS  L='2*lambda' W='4*lambda'
	MP28  out28 gnd   vdd vdd   PMOS  L='2*lambda' W='10*lambda'
	
	*--line 29
	MN291 out29 in7   gnd gnd   NMOS  L='2*lambda' W='4*lambda'
	MN292 out29 in6   gnd gnd   NMOS  L='2*lambda' W='4*lambda'
	MN293 out29 in5!  gnd gnd   NMOS  L='2*lambda' W='4*lambda'
	MN294 out29 in4!  gnd gnd   NMOS  L='2*lambda' W='4*lambda'
	MN295 out29 in3!  gnd gnd   NMOS  L='2*lambda' W='4*lambda'
	MN296 out29 in2   gnd gnd   NMOS  L='2*lambda' W='4*lambda'
	MN297 out29 in1   gnd gnd   NMOS  L='2*lambda' W='4*lambda'
	MP29  out29 gnd   vdd vdd   PMOS  L='2*lambda' W='10*lambda'
	
	*--line 30
	MN301 out30 in7!  gnd gnd   NMOS  L='2*lambda' W='4*lambda'
	MN302 out30 in6   gnd gnd   NMOS  L='2*lambda' W='4*lambda'
	MN303 out30 in5!  gnd gnd   NMOS  L='2*lambda' W='4*lambda'
	MN304 out30 in4!  gnd gnd   NMOS  L='2*lambda' W='4*lambda'
	MN305 out30 in3!  gnd gnd   NMOS  L='2*lambda' W='4*lambda'
	MN306 out30 in2   gnd gnd   NMOS  L='2*lambda' W='4*lambda'
	MN307 out30 in1   gnd gnd   NMOS  L='2*lambda' W='4*lambda'
	MP30  out30 gnd   vdd vdd   PMOS  L='2*lambda' W='10*lambda'
	
	*--line 31
	MN311 out31 in7   gnd gnd   NMOS  L='2*lambda' W='4*lambda'
	MN312 out31 in6!  gnd gnd   NMOS  L='2*lambda' W='4*lambda'
	MN313 out31 in5!  gnd gnd   NMOS  L='2*lambda' W='4*lambda'
	MN314 out31 in4!  gnd gnd   NMOS  L='2*lambda' W='4*lambda'
	MN315 out31 in3!  gnd gnd   NMOS  L='2*lambda' W='4*lambda'
	MN316 out31 in2   gnd gnd   NMOS  L='2*lambda' W='4*lambda'
	MN317 out31 in1   gnd gnd   NMOS  L='2*lambda' W='4*lambda'
	MP31  out31 gnd   vdd vdd   PMOS  L='2*lambda' W='10*lambda'
	
	*--line 32
	MN321 out32 in7!  gnd gnd   NMOS  L='2*lambda' W='4*lambda'
	MN322 out32 in6!  gnd gnd   NMOS  L='2*lambda' W='4*lambda'
	MN323 out32 in5!  gnd gnd   NMOS  L='2*lambda' W='4*lambda'
	MN324 out32 in4!  gnd gnd   NMOS  L='2*lambda' W='4*lambda'
	MN325 out32 in3!  gnd gnd   NMOS  L='2*lambda' W='4*lambda'
	MN326 out32 in2   gnd gnd   NMOS  L='2*lambda' W='4*lambda'
	MN327 out32 in1   gnd gnd   NMOS  L='2*lambda' W='4*lambda'
	MP32  out32 gnd   vdd vdd   PMOS  L='2*lambda' W='10*lambda'
	
	*--line 33
	MN331 out33 in7   gnd gnd   NMOS  L='2*lambda' W='4*lambda'
	MN332 out33 in6   gnd gnd   NMOS  L='2*lambda' W='4*lambda'
	MN333 out33 in5   gnd gnd   NMOS  L='2*lambda' W='4*lambda'
	MN334 out33 in4   gnd gnd   NMOS  L='2*lambda' W='4*lambda'
	MN335 out33 in3   gnd gnd   NMOS  L='2*lambda' W='4*lambda'
	MN336 out33 in2!  gnd gnd   NMOS  L='2*lambda' W='4*lambda'
	MN337 out33 in1   gnd gnd   NMOS  L='2*lambda' W='4*lambda'
	MP33  out33 gnd   vdd vdd   PMOS  L='2*lambda' W='10*lambda'
	
	*--line 34
	MN341 out34 in7!  gnd gnd   NMOS  L='2*lambda' W='4*lambda'
	MN342 out34 in6   gnd gnd   NMOS  L='2*lambda' W='4*lambda'
	MN343 out34 in5   gnd gnd   NMOS  L='2*lambda' W='4*lambda'
	MN344 out34 in4   gnd gnd   NMOS  L='2*lambda' W='4*lambda'
	MN345 out34 in3   gnd gnd   NMOS  L='2*lambda' W='4*lambda'
	MN346 out34 in2!  gnd gnd   NMOS  L='2*lambda' W='4*lambda'
	MN347 out34 in1   gnd gnd   NMOS  L='2*lambda' W='4*lambda'
	MP34  out34 gnd   vdd vdd   PMOS  L='2*lambda' W='10*lambda'
	
	*--line 35
	MN351 out35 in7   gnd gnd   NMOS  L='2*lambda' W='4*lambda'
	MN352 out35 in6!  gnd gnd   NMOS  L='2*lambda' W='4*lambda'
	MN353 out35 in5   gnd gnd   NMOS  L='2*lambda' W='4*lambda'
	MN354 out35 in4   gnd gnd   NMOS  L='2*lambda' W='4*lambda'
	MN355 out35 in3   gnd gnd   NMOS  L='2*lambda' W='4*lambda'
	MN356 out35 in2!  gnd gnd   NMOS  L='2*lambda' W='4*lambda'
	MN357 out35 in1   gnd gnd   NMOS  L='2*lambda' W='4*lambda'
	MP35  out35 gnd   vdd vdd   PMOS  L='2*lambda' W='10*lambda'
	
	*--line 36
	MN361 out36 in7!  gnd gnd   NMOS  L='2*lambda' W='4*lambda'
	MN362 out36 in6!  gnd gnd   NMOS  L='2*lambda' W='4*lambda'
	MN363 out36 in5   gnd gnd   NMOS  L='2*lambda' W='4*lambda'
	MN364 out36 in4   gnd gnd   NMOS  L='2*lambda' W='4*lambda'
	MN365 out36 in3   gnd gnd   NMOS  L='2*lambda' W='4*lambda'
	MN366 out36 in2!  gnd gnd   NMOS  L='2*lambda' W='4*lambda'
	MN367 out36 in1   gnd gnd   NMOS  L='2*lambda' W='4*lambda'
	MP36  out36 gnd   vdd vdd   PMOS  L='2*lambda' W='10*lambda'
	
	*--line 37
	MN371 out37 in7   gnd gnd   NMOS  L='2*lambda' W='4*lambda'
	MN372 out37 in6   gnd gnd   NMOS  L='2*lambda' W='4*lambda'
	MN373 out37 in5!  gnd gnd   NMOS  L='2*lambda' W='4*lambda'
	MN374 out37 in4   gnd gnd   NMOS  L='2*lambda' W='4*lambda'
	MN375 out37 in3   gnd gnd   NMOS  L='2*lambda' W='4*lambda'
	MN376 out37 in2!  gnd gnd   NMOS  L='2*lambda' W='4*lambda'
	MN377 out37 in1   gnd gnd   NMOS  L='2*lambda' W='4*lambda'
	MP37  out37 gnd   vdd vdd   PMOS  L='2*lambda' W='10*lambda'
	
	*--line 38
	MN381 out38 in7!  gnd gnd   NMOS  L='2*lambda' W='4*lambda'
	MN382 out38 in6   gnd gnd   NMOS  L='2*lambda' W='4*lambda'
	MN383 out38 in5!  gnd gnd   NMOS  L='2*lambda' W='4*lambda'
	MN384 out38 in4   gnd gnd   NMOS  L='2*lambda' W='4*lambda'
	MN385 out38 in3   gnd gnd   NMOS  L='2*lambda' W='4*lambda'
	MN386 out38 in2!  gnd gnd   NMOS  L='2*lambda' W='4*lambda'
	MN387 out38 in1   gnd gnd   NMOS  L='2*lambda' W='4*lambda'
	MP38  out38 gnd   vdd vdd   PMOS  L='2*lambda' W='10*lambda'
	
	*--line 39
	MN391 out39 in7   gnd gnd   NMOS  L='2*lambda' W='4*lambda'
	MN392 out39 in6!  gnd gnd   NMOS  L='2*lambda' W='4*lambda'
	MN393 out39 in5!  gnd gnd   NMOS  L='2*lambda' W='4*lambda'
	MN394 out39 in4   gnd gnd   NMOS  L='2*lambda' W='4*lambda'
	MN395 out39 in3   gnd gnd   NMOS  L='2*lambda' W='4*lambda'
	MN396 out39 in2!  gnd gnd   NMOS  L='2*lambda' W='4*lambda'
	MN397 out39 in1   gnd gnd   NMOS  L='2*lambda' W='4*lambda'
	MP39  out39 gnd   vdd vdd   PMOS  L='2*lambda' W='10*lambda'
	
	*--line 40
	MN401 out40 in7!  gnd gnd   NMOS  L='2*lambda' W='4*lambda'
	MN402 out40 in6!  gnd gnd   NMOS  L='2*lambda' W='4*lambda'
	MN403 out40 in5!  gnd gnd   NMOS  L='2*lambda' W='4*lambda'
	MN404 out40 in4   gnd gnd   NMOS  L='2*lambda' W='4*lambda'
	MN405 out40 in3   gnd gnd   NMOS  L='2*lambda' W='4*lambda'
	MN406 out40 in2!  gnd gnd   NMOS  L='2*lambda' W='4*lambda'
	MN407 out40 in1   gnd gnd   NMOS  L='2*lambda' W='4*lambda'
	MP40  out40 gnd   vdd vdd   PMOS  L='2*lambda' W='10*lambda'
	
	*--line 41
	MN411 out41 in7   gnd gnd   NMOS  L='2*lambda' W='4*lambda'
	MN412 out41 in6   gnd gnd   NMOS  L='2*lambda' W='4*lambda'
	MN413 out41 in5   gnd gnd   NMOS  L='2*lambda' W='4*lambda'
	MN414 out41 in4!  gnd gnd   NMOS  L='2*lambda' W='4*lambda'
	MN415 out41 in3   gnd gnd   NMOS  L='2*lambda' W='4*lambda'
	MN416 out41 in2!  gnd gnd   NMOS  L='2*lambda' W='4*lambda'
	MN417 out41 in1   gnd gnd   NMOS  L='2*lambda' W='4*lambda'
	MP41  out41 gnd   vdd vdd   PMOS  L='2*lambda' W='10*lambda'
	
	*--line 42
	MN421 out42 in7!  gnd gnd   NMOS  L='2*lambda' W='4*lambda'
	MN422 out42 in6   gnd gnd   NMOS  L='2*lambda' W='4*lambda'
	MN423 out42 in5   gnd gnd   NMOS  L='2*lambda' W='4*lambda'
	MN424 out42 in4!  gnd gnd   NMOS  L='2*lambda' W='4*lambda'
	MN425 out42 in3   gnd gnd   NMOS  L='2*lambda' W='4*lambda'
	MN426 out42 in2!  gnd gnd   NMOS  L='2*lambda' W='4*lambda'
	MN427 out42 in1   gnd gnd   NMOS  L='2*lambda' W='4*lambda'
	MP42  out42 gnd   vdd vdd   PMOS  L='2*lambda' W='10*lambda'
	
	*--line 43
	MN431 out43 in7   gnd gnd   NMOS  L='2*lambda' W='4*lambda'
	MN432 out43 in6!  gnd gnd   NMOS  L='2*lambda' W='4*lambda'
	MN433 out43 in5   gnd gnd   NMOS  L='2*lambda' W='4*lambda'
	MN434 out43 in4!  gnd gnd   NMOS  L='2*lambda' W='4*lambda'
	MN435 out43 in3   gnd gnd   NMOS  L='2*lambda' W='4*lambda'
	MN436 out43 in2!  gnd gnd   NMOS  L='2*lambda' W='4*lambda'
	MN437 out43 in1   gnd gnd   NMOS  L='2*lambda' W='4*lambda'
	MP43  out43 gnd   vdd vdd   PMOS  L='2*lambda' W='10*lambda'
	
	*--line 44
	MN441 out44 in7!  gnd gnd   NMOS  L='2*lambda' W='4*lambda'
	MN442 out44 in6!  gnd gnd   NMOS  L='2*lambda' W='4*lambda'
	MN443 out44 in5   gnd gnd   NMOS  L='2*lambda' W='4*lambda'
	MN444 out44 in4!  gnd gnd   NMOS  L='2*lambda' W='4*lambda'
	MN445 out44 in3   gnd gnd   NMOS  L='2*lambda' W='4*lambda'
	MN446 out44 in2!  gnd gnd   NMOS  L='2*lambda' W='4*lambda'
	MN447 out44 in1   gnd gnd   NMOS  L='2*lambda' W='4*lambda'
	MP44  out44 gnd   vdd vdd   PMOS  L='2*lambda' W='10*lambda'
	
	*--line 45
	MN451 out45 in7   gnd gnd   NMOS  L='2*lambda' W='4*lambda'
	MN452 out45 in6   gnd gnd   NMOS  L='2*lambda' W='4*lambda'
	MN453 out45 in5!  gnd gnd   NMOS  L='2*lambda' W='4*lambda'
	MN454 out45 in4!  gnd gnd   NMOS  L='2*lambda' W='4*lambda'
	MN455 out45 in3   gnd gnd   NMOS  L='2*lambda' W='4*lambda'
	MN456 out45 in2!  gnd gnd   NMOS  L='2*lambda' W='4*lambda'
	MN457 out45 in1   gnd gnd   NMOS  L='2*lambda' W='4*lambda'
	MP45  out45 gnd   vdd vdd   PMOS  L='2*lambda' W='10*lambda'
	
	*--line 46
	MN461 out46 in7!  gnd gnd   NMOS  L='2*lambda' W='4*lambda'
	MN462 out46 in6   gnd gnd   NMOS  L='2*lambda' W='4*lambda'
	MN463 out46 in5!  gnd gnd   NMOS  L='2*lambda' W='4*lambda'
	MN464 out46 in4!  gnd gnd   NMOS  L='2*lambda' W='4*lambda'
	MN465 out46 in3   gnd gnd   NMOS  L='2*lambda' W='4*lambda'
	MN466 out46 in2!  gnd gnd   NMOS  L='2*lambda' W='4*lambda'
	MN467 out46 in1   gnd gnd   NMOS  L='2*lambda' W='4*lambda'
	MP46  out46 gnd   vdd vdd   PMOS  L='2*lambda' W='10*lambda'
	
	*--line 47
	MN471 out47 in7   gnd gnd   NMOS  L='2*lambda' W='4*lambda'
	MN472 out47 in6!  gnd gnd   NMOS  L='2*lambda' W='4*lambda'
	MN473 out47 in5!  gnd gnd   NMOS  L='2*lambda' W='4*lambda'
	MN474 out47 in4!  gnd gnd   NMOS  L='2*lambda' W='4*lambda'
	MN475 out47 in3   gnd gnd   NMOS  L='2*lambda' W='4*lambda'
	MN476 out47 in2!  gnd gnd   NMOS  L='2*lambda' W='4*lambda'
	MN477 out47 in1   gnd gnd   NMOS  L='2*lambda' W='4*lambda'
	MP47  out47 gnd   vdd vdd   PMOS  L='2*lambda' W='10*lambda'
	
	*--line 48
	MN481 out48 in7!  gnd gnd   NMOS  L='2*lambda' W='4*lambda'
	MN482 out48 in6!  gnd gnd   NMOS  L='2*lambda' W='4*lambda'
	MN483 out48 in5!  gnd gnd   NMOS  L='2*lambda' W='4*lambda'
	MN484 out48 in4!  gnd gnd   NMOS  L='2*lambda' W='4*lambda'
	MN485 out48 in3   gnd gnd   NMOS  L='2*lambda' W='4*lambda'
	MN486 out48 in2!  gnd gnd   NMOS  L='2*lambda' W='4*lambda'
	MN487 out48 in1   gnd gnd   NMOS  L='2*lambda' W='4*lambda'
	MP48  out48 gnd   vdd vdd   PMOS  L='2*lambda' W='10*lambda'
	
	*--line 49
	MN491 out49 in7   gnd gnd   NMOS  L='2*lambda' W='4*lambda'
	MN492 out49 in6   gnd gnd   NMOS  L='2*lambda' W='4*lambda'
	MN493 out49 in5   gnd gnd   NMOS  L='2*lambda' W='4*lambda'
	MN494 out49 in4   gnd gnd   NMOS  L='2*lambda' W='4*lambda'
	MN495 out49 in3!  gnd gnd   NMOS  L='2*lambda' W='4*lambda'
	MN496 out49 in2!  gnd gnd   NMOS  L='2*lambda' W='4*lambda'
	MN497 out49 in1   gnd gnd   NMOS  L='2*lambda' W='4*lambda'
	MP49  out49 gnd   vdd vdd   PMOS  L='2*lambda' W='10*lambda'
	
	*--line 50
	MN501 out50 in7!  gnd gnd   NMOS  L='2*lambda' W='4*lambda'
	MN502 out50 in6   gnd gnd   NMOS  L='2*lambda' W='4*lambda'
	MN503 out50 in5   gnd gnd   NMOS  L='2*lambda' W='4*lambda'
	MN504 out50 in4   gnd gnd   NMOS  L='2*lambda' W='4*lambda'
	MN505 out50 in3!  gnd gnd   NMOS  L='2*lambda' W='4*lambda'
	MN506 out50 in2!  gnd gnd   NMOS  L='2*lambda' W='4*lambda'
	MN507 out50 in1   gnd gnd   NMOS  L='2*lambda' W='4*lambda'
	MP50  out50 gnd   vdd vdd   PMOS  L='2*lambda' W='10*lambda'
	
	*--line 51
	MN511 out51 in7   gnd gnd   NMOS  L='2*lambda' W='4*lambda'
	MN512 out51 in6!  gnd gnd   NMOS  L='2*lambda' W='4*lambda'
	MN513 out51 in5   gnd gnd   NMOS  L='2*lambda' W='4*lambda'
	MN514 out51 in4   gnd gnd   NMOS  L='2*lambda' W='4*lambda'
	MN515 out51 in3!  gnd gnd   NMOS  L='2*lambda' W='4*lambda'
	MN516 out51 in2!  gnd gnd   NMOS  L='2*lambda' W='4*lambda'
	MN517 out51 in1   gnd gnd   NMOS  L='2*lambda' W='4*lambda'
	MP51  out51 gnd   vdd vdd   PMOS  L='2*lambda' W='10*lambda'
	
	*--line 52
	MN521 out52 in7!  gnd gnd   NMOS  L='2*lambda' W='4*lambda'
	MN522 out52 in6!  gnd gnd   NMOS  L='2*lambda' W='4*lambda'
	MN523 out52 in5   gnd gnd   NMOS  L='2*lambda' W='4*lambda'
	MN524 out52 in4   gnd gnd   NMOS  L='2*lambda' W='4*lambda'
	MN525 out52 in3!  gnd gnd   NMOS  L='2*lambda' W='4*lambda'
	MN526 out52 in2!  gnd gnd   NMOS  L='2*lambda' W='4*lambda'
	MN527 out52 in1   gnd gnd   NMOS  L='2*lambda' W='4*lambda'
	MP52  out52 gnd   vdd vdd   PMOS  L='2*lambda' W='10*lambda'
	
	*--line 53
	MN531 out53 in7   gnd gnd   NMOS  L='2*lambda' W='4*lambda'
	MN532 out53 in6   gnd gnd   NMOS  L='2*lambda' W='4*lambda'
	MN533 out53 in5!  gnd gnd   NMOS  L='2*lambda' W='4*lambda'
	MN534 out53 in4   gnd gnd   NMOS  L='2*lambda' W='4*lambda'
	MN535 out53 in3!  gnd gnd   NMOS  L='2*lambda' W='4*lambda'
	MN536 out53 in2!  gnd gnd   NMOS  L='2*lambda' W='4*lambda'
	MN537 out53 in1   gnd gnd   NMOS  L='2*lambda' W='4*lambda'
	MP53  out53 gnd   vdd vdd   PMOS  L='2*lambda' W='10*lambda'
	
	*--line 54
	MN541 out54 in7!  gnd gnd   NMOS  L='2*lambda' W='4*lambda'
	MN542 out54 in6   gnd gnd   NMOS  L='2*lambda' W='4*lambda'
	MN543 out54 in5!  gnd gnd   NMOS  L='2*lambda' W='4*lambda'
	MN544 out54 in4   gnd gnd   NMOS  L='2*lambda' W='4*lambda'
	MN545 out54 in3!  gnd gnd   NMOS  L='2*lambda' W='4*lambda'
	MN546 out54 in2!  gnd gnd   NMOS  L='2*lambda' W='4*lambda'
	MN547 out54 in1   gnd gnd   NMOS  L='2*lambda' W='4*lambda'
	MP54  out54 gnd   vdd vdd   PMOS  L='2*lambda' W='10*lambda'
	
	*--line 55
	MN551 out55 in7   gnd gnd   NMOS  L='2*lambda' W='4*lambda'
	MN552 out55 in6!  gnd gnd   NMOS  L='2*lambda' W='4*lambda'
	MN553 out55 in5!  gnd gnd   NMOS  L='2*lambda' W='4*lambda'
	MN554 out55 in4   gnd gnd   NMOS  L='2*lambda' W='4*lambda'
	MN555 out55 in3!  gnd gnd   NMOS  L='2*lambda' W='4*lambda'
	MN556 out55 in2!  gnd gnd   NMOS  L='2*lambda' W='4*lambda'
	MN557 out55 in1   gnd gnd   NMOS  L='2*lambda' W='4*lambda'
	MP55  out55 gnd   vdd vdd   PMOS  L='2*lambda' W='10*lambda'
	
	*--line 56
	MN561 out56 in7!  gnd gnd   NMOS  L='2*lambda' W='4*lambda'
	MN562 out56 in6!  gnd gnd   NMOS  L='2*lambda' W='4*lambda'
	MN563 out56 in5!  gnd gnd   NMOS  L='2*lambda' W='4*lambda'
	MN564 out56 in4   gnd gnd   NMOS  L='2*lambda' W='4*lambda'
	MN565 out56 in3!  gnd gnd   NMOS  L='2*lambda' W='4*lambda'
	MN566 out56 in2!  gnd gnd   NMOS  L='2*lambda' W='4*lambda'